<html>
<body>
<pre>
<h1>Build Log</h1>
<h3>
--------------------Configuration: GE - Win32 Release--------------------
</h3>
<h3>Command Lines</h3>
Creating command line "rc.exe /l 0x409 /fo"Release/GE.res" /d "NDEBUG" /d "_AFXDLL" "C:\CD\GE\GE.rc"" 
Creating temporary file "C:\TEMP\RSP10.tmp" with contents
[
/nologo /MD /W3 /GX /O2 /I "c:\Program Files\vtkNightly\include" /D "WIN32" /D "NDEBUG" /D "_WINDOWS" /D "_AFXDLL" /Fp"Release/GE.pch" /Yu"stdafx.h" /Fo"Release/" /Fd"Release/" /FD /c 
"C:\CD\GE\Actor.cpp"
"C:\CD\GE\Average.cpp"
"C:\CD\GE\AverageGUI.cpp"
"C:\CD\GE\AxesDlg.cpp"
"C:\CD\GE\CleanTriangulate.cpp"
"C:\CD\GE\ClipDlg.cpp"
"C:\CD\GE\ClipPolyData.cpp"
"C:\CD\GE\Color.cpp"
"C:\CD\GE\ColorEditBox.cpp"
"C:\CD\GE\ColorGrid.cpp"
"C:\CD\GE\ColorLevelDlg.cpp"
"C:\CD\GE\ColorPage.cpp"
"C:\CD\GE\ColorRow.cpp"
"C:\CD\GE\ColorSpectrum.cpp"
"C:\CD\GE\ColorSpectrumDlg.cpp"
"C:\CD\GE\ColorTable.cpp"
"C:\CD\GE\DecimateSmoothGUI.cpp"
"C:\CD\GE\DecimateSmoothNormals.cpp"
"C:\CD\GE\FilesExist.cpp"
"C:\CD\GE\font.cpp"
"C:\CD\GE\GE.cpp"
"C:\CD\GE\Geometry.cpp"
"C:\CD\GE\GeospatialModel.cpp"
"C:\CD\GE\GeospatialModelAverageGrid.cpp"
"C:\CD\GE\GeospatialModelAverageGridRelaxationFactorEditBox.cpp"
"C:\CD\GE\GeospatialModelAverageGridTargetReductionEditBox.cpp"
"C:\CD\GE\GeospatialModelAveragePage.cpp"
"C:\CD\GE\GeoSpatialModelForLayer.cpp"
"C:\CD\GE\GeospatialModelForLayerGUI.cpp"
"C:\CD\GE\GeospatialModelGeneralGrid.cpp"
"C:\CD\GE\GeospatialModelGeneralGridOpacityEditBox.cpp"
"C:\CD\GE\GeospatialModelGeneralPage.cpp"
"C:\CD\GE\GeospatialModelSheet.cpp"
"C:\CD\GE\GeospatialModelVisibleGrid.cpp"
"C:\CD\GE\GeospatialModelVisiblePage.cpp"
"C:\CD\GE\HexahedronTopology.cpp"
"C:\CD\GE\HydraulicComponent.cpp"
"C:\CD\GE\HydraulicComponentGUI.cpp"
"C:\CD\GE\HydraulicComponents.cpp"
"C:\CD\GE\HydraulicComponentsAveragePage.cpp"
"C:\CD\GE\HydraulicComponentsGeneralGrid.cpp"
"C:\CD\GE\HydraulicComponentsGeneralPage.cpp"
"C:\CD\GE\HydraulicComponentsGeneralPageTD.cpp"
"C:\CD\GE\HydraulicComponentsSheet.cpp"
"C:\CD\GE\HydraulicTDComponents.cpp"
"C:\CD\GE\HydraulicTIComponents.cpp"
"C:\CD\GE\Indexes.cpp"
"C:\CD\GE\IterationsEditBox.cpp"
"C:\CD\GE\LookUpTable.cpp"
"C:\CD\GE\MainFrm.cpp"
"C:\CD\GE\Mapper.cpp"
"C:\CD\GE\MenuButton.cpp"
"C:\CD\GE\Model.cpp"
"C:\CD\GE\ModelOutline.cpp"
"C:\CD\GE\ModelOutlineGeneralPage.cpp"
"C:\CD\GE\ModelOutlineSheet.cpp"
"C:\CD\GE\msflexgrid.cpp"
"C:\CD\GE\MT3DMS.cpp"
"C:\CD\GE\MT3DMSContourAndColorAddDlg.cpp"
"C:\CD\GE\MT3DMSContourAndColorEditBox.cpp"
"C:\CD\GE\MT3DMSContourAndColorGrid.cpp"
"C:\CD\GE\MT3DMSContourAndColorPage.cpp"
"C:\CD\GE\MT3DMSContourAndColorRow.cpp"
"C:\CD\GE\MT3DMSContourAndColorTable.cpp"
"C:\CD\GE\MT3DMSGeneralPage.cpp"
"C:\CD\GE\MT3DMSGUI.cpp"
"C:\CD\GE\MT3DMSLookupTable.cpp"
"C:\CD\GE\MT3DMSSheet.cpp"
"C:\CD\GE\MT3DMSTopology.cpp"
"C:\CD\GE\ObjectList.cpp"
"C:\CD\GE\Parameter.cpp"
"C:\CD\GE\ParameterAveragePage.cpp"
"C:\CD\GE\ParameterGeneralGrid.cpp"
"C:\CD\GE\ParameterGeneralPage.cpp"
"C:\CD\GE\ParameterGUI.cpp"
"C:\CD\GE\ParameterSheet.cpp"
"C:\CD\GE\picture.cpp"
"C:\CD\GE\PolyData.cpp"
"C:\CD\GE\PotentiometricSurface.cpp"
"C:\CD\GE\PotentiometricSurfaceGeneralPage.cpp"
"C:\CD\GE\PotentiometricSurfaceGUI.cpp"
"C:\CD\GE\PotentiometricSurfaceSheet.cpp"
"C:\CD\GE\QuadIndexes.cpp"
"C:\CD\GE\ReadFile.cpp"
"C:\CD\GE\RelaxationFactorEditBox.cpp"
"C:\CD\GE\rowcursor.cpp"
"C:\CD\GE\ScaleDlg.cpp"
"C:\CD\GE\SidesQuadTopology.cpp"
"C:\CD\GE\Splash.cpp"
"C:\CD\GE\StressPeriod.cpp"
"C:\CD\GE\TimeAndLayerParameter.cpp"
"C:\CD\GE\TimeStep.cpp"
"C:\CD\GE\TopQuadTopology.cpp"
"C:\CD\GE\Visualization.cpp"
"C:\CD\GE\VisualizationObject.cpp"
"C:\CD\GE\VisualizeDlg.cpp"
"C:\CD\GE\VisualizeGrid.cpp"
"C:\CD\GE\vtkDoc.cpp"
"C:\CD\GE\vtkView.cpp"
"C:\CD\GE\XYZCoordinate.cpp"
"C:\CD\GE\XYZSurface.cpp"
"C:\CD\GE\XYZSurfaceDecSmoothPage.cpp"
"C:\CD\GE\XYZSurfaceGeneralPage.cpp"
"C:\CD\GE\XYZSurfaceGeometryAndTopology.cpp"
"C:\CD\GE\XYZSurfaceGUI.cpp"
"C:\CD\GE\XYZSurfaceSheet.cpp"
"C:\CD\GE\PotentiometricSurfaceAveragePage.cpp"
]
Creating command line "cl.exe @C:\TEMP\RSP10.tmp" 
Creating temporary file "C:\TEMP\RSP11.tmp" with contents
[
/nologo /MD /W3 /GX /O2 /I "c:\Program Files\vtkNightly\include" /D "WIN32" /D "NDEBUG" /D "_WINDOWS" /D "_AFXDLL" /Fp"Release/GE.pch" /Yc"stdafx.h" /Fo"Release/" /Fd"Release/" /FD /c 
"C:\CD\GE\StdAfx.cpp"
]
Creating command line "cl.exe @C:\TEMP\RSP11.tmp" 
Creating temporary file "C:\TEMP\RSP12.tmp" with contents
[
vtkdll.lib /nologo /subsystem:windows /incremental:no /pdb:"Release/GE.pdb" /machine:I386 /out:"Release/GE.exe" /libpath:"c:\Program Files\vtkNightly\lib" 
.\Release\Actor.obj
.\Release\Average.obj
.\Release\AverageGUI.obj
.\Release\AxesDlg.obj
.\Release\CleanTriangulate.obj
.\Release\ClipDlg.obj
.\Release\ClipPolyData.obj
.\Release\Color.obj
.\Release\ColorEditBox.obj
.\Release\ColorGrid.obj
.\Release\ColorLevelDlg.obj
.\Release\ColorPage.obj
.\Release\ColorRow.obj
.\Release\ColorSpectrum.obj
.\Release\ColorSpectrumDlg.obj
.\Release\ColorTable.obj
.\Release\DecimateSmoothGUI.obj
.\Release\DecimateSmoothNormals.obj
.\Release\FilesExist.obj
.\Release\font.obj
.\Release\GE.obj
.\Release\Geometry.obj
.\Release\GeospatialModel.obj
.\Release\GeospatialModelAverageGrid.obj
.\Release\GeospatialModelAverageGridRelaxationFactorEditBox.obj
.\Release\GeospatialModelAverageGridTargetReductionEditBox.obj
.\Release\GeospatialModelAveragePage.obj
.\Release\GeoSpatialModelForLayer.obj
.\Release\GeospatialModelForLayerGUI.obj
.\Release\GeospatialModelGeneralGrid.obj
.\Release\GeospatialModelGeneralGridOpacityEditBox.obj
.\Release\GeospatialModelGeneralPage.obj
.\Release\GeospatialModelSheet.obj
.\Release\GeospatialModelVisibleGrid.obj
.\Release\GeospatialModelVisiblePage.obj
.\Release\HexahedronTopology.obj
.\Release\HydraulicComponent.obj
.\Release\HydraulicComponentGUI.obj
.\Release\HydraulicComponents.obj
.\Release\HydraulicComponentsAveragePage.obj
.\Release\HydraulicComponentsGeneralGrid.obj
.\Release\HydraulicComponentsGeneralPage.obj
.\Release\HydraulicComponentsGeneralPageTD.obj
.\Release\HydraulicComponentsSheet.obj
.\Release\HydraulicTDComponents.obj
.\Release\HydraulicTIComponents.obj
.\Release\Indexes.obj
.\Release\IterationsEditBox.obj
.\Release\LookUpTable.obj
.\Release\MainFrm.obj
.\Release\Mapper.obj
.\Release\MenuButton.obj
.\Release\Model.obj
.\Release\ModelOutline.obj
.\Release\ModelOutlineGeneralPage.obj
.\Release\ModelOutlineSheet.obj
.\Release\msflexgrid.obj
.\Release\MT3DMS.obj
.\Release\MT3DMSContourAndColorAddDlg.obj
.\Release\MT3DMSContourAndColorEditBox.obj
.\Release\MT3DMSContourAndColorGrid.obj
.\Release\MT3DMSContourAndColorPage.obj
.\Release\MT3DMSContourAndColorRow.obj
.\Release\MT3DMSContourAndColorTable.obj
.\Release\MT3DMSGeneralPage.obj
.\Release\MT3DMSGUI.obj
.\Release\MT3DMSLookupTable.obj
.\Release\MT3DMSSheet.obj
.\Release\MT3DMSTopology.obj
.\Release\ObjectList.obj
.\Release\Parameter.obj
.\Release\ParameterAveragePage.obj
.\Release\ParameterGeneralGrid.obj
.\Release\ParameterGeneralPage.obj
.\Release\ParameterGUI.obj
.\Release\ParameterSheet.obj
.\Release\picture.obj
.\Release\PolyData.obj
.\Release\PotentiometricSurface.obj
.\Release\PotentiometricSurfaceGeneralPage.obj
.\Release\PotentiometricSurfaceGUI.obj
.\Release\PotentiometricSurfaceSheet.obj
.\Release\QuadIndexes.obj
.\Release\ReadFile.obj
.\Release\RelaxationFactorEditBox.obj
.\Release\rowcursor.obj
.\Release\ScaleDlg.obj
.\Release\SidesQuadTopology.obj
.\Release\Splash.obj
.\Release\StdAfx.obj
.\Release\StressPeriod.obj
.\Release\TimeAndLayerParameter.obj
.\Release\TimeStep.obj
.\Release\TopQuadTopology.obj
.\Release\Visualization.obj
.\Release\VisualizationObject.obj
.\Release\VisualizeDlg.obj
.\Release\VisualizeGrid.obj
.\Release\vtkDoc.obj
.\Release\vtkView.obj
.\Release\XYZCoordinate.obj
.\Release\XYZSurface.obj
.\Release\XYZSurfaceDecSmoothPage.obj
.\Release\XYZSurfaceGeneralPage.obj
.\Release\XYZSurfaceGeometryAndTopology.obj
.\Release\XYZSurfaceGUI.obj
.\Release\XYZSurfaceSheet.obj
.\Release\PotentiometricSurfaceAveragePage.obj
.\Release\GE.res
.\READFOR.lib
]
Creating command line "link.exe @C:\TEMP\RSP12.tmp"
<h3>Output Window</h3>
Compiling resources...
Compiling...
StdAfx.cpp
Compiling...
Actor.cpp
Average.cpp
AverageGUI.cpp
AxesDlg.cpp
CleanTriangulate.cpp
ClipDlg.cpp
ClipPolyData.cpp
Color.cpp
ColorEditBox.cpp
ColorGrid.cpp
ColorLevelDlg.cpp
ColorPage.cpp
ColorRow.cpp
ColorSpectrum.cpp
ColorSpectrumDlg.cpp
ColorTable.cpp
DecimateSmoothGUI.cpp
DecimateSmoothNormals.cpp
FilesExist.cpp
font.cpp
Generating Code...
Compiling...
GE.cpp
Geometry.cpp
GeospatialModel.cpp
GeospatialModelAverageGrid.cpp
GeospatialModelAverageGridRelaxationFactorEditBox.cpp
GeospatialModelAverageGridTargetReductionEditBox.cpp
GeospatialModelAveragePage.cpp
GeoSpatialModelForLayer.cpp
GeospatialModelForLayerGUI.cpp
GeospatialModelGeneralGrid.cpp
GeospatialModelGeneralGridOpacityEditBox.cpp
GeospatialModelGeneralPage.cpp
GeospatialModelSheet.cpp
GeospatialModelVisibleGrid.cpp
GeospatialModelVisiblePage.cpp
HexahedronTopology.cpp
HydraulicComponent.cpp
HydraulicComponentGUI.cpp
HydraulicComponents.cpp
HydraulicComponentsAveragePage.cpp
Generating Code...
Compiling...
HydraulicComponentsGeneralGrid.cpp
HydraulicComponentsGeneralPage.cpp
HydraulicComponentsGeneralPageTD.cpp
HydraulicComponentsSheet.cpp
HydraulicTDComponents.cpp
HydraulicTIComponents.cpp
Indexes.cpp
IterationsEditBox.cpp
LookUpTable.cpp
MainFrm.cpp
Mapper.cpp
MenuButton.cpp
Model.cpp
ModelOutline.cpp
ModelOutlineGeneralPage.cpp
ModelOutlineSheet.cpp
msflexgrid.cpp
MT3DMS.cpp
MT3DMSContourAndColorAddDlg.cpp
MT3DMSContourAndColorEditBox.cpp
Generating Code...
Compiling...
MT3DMSContourAndColorGrid.cpp
MT3DMSContourAndColorPage.cpp
MT3DMSContourAndColorRow.cpp
MT3DMSContourAndColorTable.cpp
MT3DMSGeneralPage.cpp
MT3DMSGUI.cpp
MT3DMSLookupTable.cpp
MT3DMSSheet.cpp
MT3DMSTopology.cpp
ObjectList.cpp
Parameter.cpp
ParameterAveragePage.cpp
ParameterGeneralGrid.cpp
ParameterGeneralPage.cpp
ParameterGUI.cpp
ParameterSheet.cpp
picture.cpp
PolyData.cpp
PotentiometricSurface.cpp
PotentiometricSurfaceGeneralPage.cpp
Generating Code...
Compiling...
PotentiometricSurfaceGUI.cpp
PotentiometricSurfaceSheet.cpp
QuadIndexes.cpp
ReadFile.cpp
RelaxationFactorEditBox.cpp
rowcursor.cpp
ScaleDlg.cpp
SidesQuadTopology.cpp
Splash.cpp
StressPeriod.cpp
TimeAndLayerParameter.cpp
TimeStep.cpp
TopQuadTopology.cpp
Visualization.cpp
VisualizationObject.cpp
VisualizeDlg.cpp
VisualizeGrid.cpp
vtkDoc.cpp
vtkView.cpp
XYZCoordinate.cpp
Generating Code...
Compiling...
XYZSurface.cpp
XYZSurfaceDecSmoothPage.cpp
XYZSurfaceGeneralPage.cpp
XYZSurfaceGeometryAndTopology.cpp
XYZSurfaceGUI.cpp
XYZSurfaceSheet.cpp
PotentiometricSurfaceAveragePage.cpp
Generating Code...
Linking...



<h3>Results</h3>
GE.exe - 0 error(s), 0 warning(s)
<h3>
--------------------Configuration: GE - Win32 Debug--------------------
</h3>
<h3>Command Lines</h3>
Creating command line "rc.exe /l 0x409 /fo"Debug/GE.res" /d "_DEBUG" /d "_AFXDLL" "C:\CD\GE\GE.rc"" 
Creating temporary file "C:\TEMP\RSP14.tmp" with contents
[
/nologo /MDd /W3 /Gm /Gi /GX /ZI /I "c:\Program Files\vtkNightly\include" /D "WIN32" /D "_DEBUG" /D "_WINDOWS" /D "_AFXDLL" /FR"Debug/" /Fp"Debug/GE.pch" /Yu"stdafx.h" /Fo"Debug/" /Fd"Debug/" /FD /c 
"C:\CD\GE\Actor.cpp"
"C:\CD\GE\Average.cpp"
"C:\CD\GE\AverageGUI.cpp"
"C:\CD\GE\AxesDlg.cpp"
"C:\CD\GE\CleanTriangulate.cpp"
"C:\CD\GE\ClipDlg.cpp"
"C:\CD\GE\ClipPolyData.cpp"
"C:\CD\GE\Color.cpp"
"C:\CD\GE\ColorEditBox.cpp"
"C:\CD\GE\ColorGrid.cpp"
"C:\CD\GE\ColorLevelDlg.cpp"
"C:\CD\GE\ColorPage.cpp"
"C:\CD\GE\ColorRow.cpp"
"C:\CD\GE\ColorSpectrum.cpp"
"C:\CD\GE\ColorSpectrumDlg.cpp"
"C:\CD\GE\ColorTable.cpp"
"C:\CD\GE\DecimateSmoothGUI.cpp"
"C:\CD\GE\DecimateSmoothNormals.cpp"
"C:\CD\GE\FilesExist.cpp"
"C:\CD\GE\font.cpp"
"C:\CD\GE\GE.cpp"
"C:\CD\GE\Geometry.cpp"
"C:\CD\GE\GeospatialModel.cpp"
"C:\CD\GE\GeospatialModelAverageGrid.cpp"
"C:\CD\GE\GeospatialModelAverageGridRelaxationFactorEditBox.cpp"
"C:\CD\GE\GeospatialModelAverageGridTargetReductionEditBox.cpp"
"C:\CD\GE\GeospatialModelAveragePage.cpp"
"C:\CD\GE\GeoSpatialModelForLayer.cpp"
"C:\CD\GE\GeospatialModelForLayerGUI.cpp"
"C:\CD\GE\GeospatialModelGeneralGrid.cpp"
"C:\CD\GE\GeospatialModelGeneralGridOpacityEditBox.cpp"
"C:\CD\GE\GeospatialModelGeneralPage.cpp"
"C:\CD\GE\GeospatialModelSheet.cpp"
"C:\CD\GE\GeospatialModelVisibleGrid.cpp"
"C:\CD\GE\GeospatialModelVisiblePage.cpp"
"C:\CD\GE\HexahedronTopology.cpp"
"C:\CD\GE\HydraulicComponent.cpp"
"C:\CD\GE\HydraulicComponentGUI.cpp"
"C:\CD\GE\HydraulicComponents.cpp"
"C:\CD\GE\HydraulicComponentsAveragePage.cpp"
"C:\CD\GE\HydraulicComponentsGeneralGrid.cpp"
"C:\CD\GE\HydraulicComponentsGeneralPage.cpp"
"C:\CD\GE\HydraulicComponentsGeneralPageTD.cpp"
"C:\CD\GE\HydraulicComponentsSheet.cpp"
"C:\CD\GE\HydraulicTDComponents.cpp"
"C:\CD\GE\HydraulicTIComponents.cpp"
"C:\CD\GE\Indexes.cpp"
"C:\CD\GE\IterationsEditBox.cpp"
"C:\CD\GE\LookUpTable.cpp"
"C:\CD\GE\MainFrm.cpp"
"C:\CD\GE\Mapper.cpp"
"C:\CD\GE\MenuButton.cpp"
"C:\CD\GE\Model.cpp"
"C:\CD\GE\ModelOutline.cpp"
"C:\CD\GE\ModelOutlineGeneralPage.cpp"
"C:\CD\GE\ModelOutlineSheet.cpp"
"C:\CD\GE\msflexgrid.cpp"
"C:\CD\GE\MT3DMS.cpp"
"C:\CD\GE\MT3DMSContourAndColorAddDlg.cpp"
"C:\CD\GE\MT3DMSContourAndColorEditBox.cpp"
"C:\CD\GE\MT3DMSContourAndColorGrid.cpp"
"C:\CD\GE\MT3DMSContourAndColorPage.cpp"
"C:\CD\GE\MT3DMSContourAndColorRow.cpp"
"C:\CD\GE\MT3DMSContourAndColorTable.cpp"
"C:\CD\GE\MT3DMSGeneralPage.cpp"
"C:\CD\GE\MT3DMSGUI.cpp"
"C:\CD\GE\MT3DMSLookupTable.cpp"
"C:\CD\GE\MT3DMSSheet.cpp"
"C:\CD\GE\MT3DMSTopology.cpp"
"C:\CD\GE\ObjectList.cpp"
"C:\CD\GE\Parameter.cpp"
"C:\CD\GE\ParameterAveragePage.cpp"
"C:\CD\GE\ParameterGeneralGrid.cpp"
"C:\CD\GE\ParameterGeneralPage.cpp"
"C:\CD\GE\ParameterGUI.cpp"
"C:\CD\GE\ParameterSheet.cpp"
"C:\CD\GE\picture.cpp"
"C:\CD\GE\PolyData.cpp"
"C:\CD\GE\PotentiometricSurface.cpp"
"C:\CD\GE\PotentiometricSurfaceGeneralPage.cpp"
"C:\CD\GE\PotentiometricSurfaceGUI.cpp"
"C:\CD\GE\PotentiometricSurfaceSheet.cpp"
"C:\CD\GE\QuadIndexes.cpp"
"C:\CD\GE\ReadFile.cpp"
"C:\CD\GE\RelaxationFactorEditBox.cpp"
"C:\CD\GE\rowcursor.cpp"
"C:\CD\GE\ScaleDlg.cpp"
"C:\CD\GE\SidesQuadTopology.cpp"
"C:\CD\GE\Splash.cpp"
"C:\CD\GE\StressPeriod.cpp"
"C:\CD\GE\TimeAndLayerParameter.cpp"
"C:\CD\GE\TimeStep.cpp"
"C:\CD\GE\TopQuadTopology.cpp"
"C:\CD\GE\Visualization.cpp"
"C:\CD\GE\VisualizationObject.cpp"
"C:\CD\GE\VisualizeDlg.cpp"
"C:\CD\GE\VisualizeGrid.cpp"
"C:\CD\GE\vtkDoc.cpp"
"C:\CD\GE\vtkView.cpp"
"C:\CD\GE\XYZCoordinate.cpp"
"C:\CD\GE\XYZSurface.cpp"
"C:\CD\GE\XYZSurfaceDecSmoothPage.cpp"
"C:\CD\GE\XYZSurfaceGeneralPage.cpp"
"C:\CD\GE\XYZSurfaceGeometryAndTopology.cpp"
"C:\CD\GE\XYZSurfaceGUI.cpp"
"C:\CD\GE\XYZSurfaceSheet.cpp"
"C:\CD\GE\PotentiometricSurfaceAveragePage.cpp"
]
Creating command line "cl.exe @C:\TEMP\RSP14.tmp" 
Creating temporary file "C:\TEMP\RSP15.tmp" with contents
[
/nologo /MDd /W3 /Gm /Gi /GX /ZI /I "c:\Program Files\vtkNightly\include" /D "WIN32" /D "_DEBUG" /D "_WINDOWS" /D "_AFXDLL" /FR"Debug/" /Fp"Debug/GE.pch" /Yc"stdafx.h" /Fo"Debug/" /Fd"Debug/" /FD /c 
"C:\CD\GE\StdAfx.cpp"
]
Creating command line "cl.exe @C:\TEMP\RSP15.tmp" 
Creating temporary file "C:\TEMP\RSP16.tmp" with contents
[
vtkdll.lib /nologo /subsystem:windows /incremental:yes /pdb:"Debug/GE.pdb" /debug /machine:I386 /out:"Debug/GE.exe" /pdbtype:sept /libpath:"c:\Program Files\vtkNightly\lib" 
.\Debug\Actor.obj
.\Debug\Average.obj
.\Debug\AverageGUI.obj
.\Debug\AxesDlg.obj
.\Debug\CleanTriangulate.obj
.\Debug\ClipDlg.obj
.\Debug\ClipPolyData.obj
.\Debug\Color.obj
.\Debug\ColorEditBox.obj
.\Debug\ColorGrid.obj
.\Debug\ColorLevelDlg.obj
.\Debug\ColorPage.obj
.\Debug\ColorRow.obj
.\Debug\ColorSpectrum.obj
.\Debug\ColorSpectrumDlg.obj
.\Debug\ColorTable.obj
.\Debug\DecimateSmoothGUI.obj
.\Debug\DecimateSmoothNormals.obj
.\Debug\FilesExist.obj
.\Debug\font.obj
.\Debug\GE.obj
.\Debug\Geometry.obj
.\Debug\GeospatialModel.obj
.\Debug\GeospatialModelAverageGrid.obj
.\Debug\GeospatialModelAverageGridRelaxationFactorEditBox.obj
.\Debug\GeospatialModelAverageGridTargetReductionEditBox.obj
.\Debug\GeospatialModelAveragePage.obj
.\Debug\GeoSpatialModelForLayer.obj
.\Debug\GeospatialModelForLayerGUI.obj
.\Debug\GeospatialModelGeneralGrid.obj
.\Debug\GeospatialModelGeneralGridOpacityEditBox.obj
.\Debug\GeospatialModelGeneralPage.obj
.\Debug\GeospatialModelSheet.obj
.\Debug\GeospatialModelVisibleGrid.obj
.\Debug\GeospatialModelVisiblePage.obj
.\Debug\HexahedronTopology.obj
.\Debug\HydraulicComponent.obj
.\Debug\HydraulicComponentGUI.obj
.\Debug\HydraulicComponents.obj
.\Debug\HydraulicComponentsAveragePage.obj
.\Debug\HydraulicComponentsGeneralGrid.obj
.\Debug\HydraulicComponentsGeneralPage.obj
.\Debug\HydraulicComponentsGeneralPageTD.obj
.\Debug\HydraulicComponentsSheet.obj
.\Debug\HydraulicTDComponents.obj
.\Debug\HydraulicTIComponents.obj
.\Debug\Indexes.obj
.\Debug\IterationsEditBox.obj
.\Debug\LookUpTable.obj
.\Debug\MainFrm.obj
.\Debug\Mapper.obj
.\Debug\MenuButton.obj
.\Debug\Model.obj
.\Debug\ModelOutline.obj
.\Debug\ModelOutlineGeneralPage.obj
.\Debug\ModelOutlineSheet.obj
.\Debug\msflexgrid.obj
.\Debug\MT3DMS.obj
.\Debug\MT3DMSContourAndColorAddDlg.obj
.\Debug\MT3DMSContourAndColorEditBox.obj
.\Debug\MT3DMSContourAndColorGrid.obj
.\Debug\MT3DMSContourAndColorPage.obj
.\Debug\MT3DMSContourAndColorRow.obj
.\Debug\MT3DMSContourAndColorTable.obj
.\Debug\MT3DMSGeneralPage.obj
.\Debug\MT3DMSGUI.obj
.\Debug\MT3DMSLookupTable.obj
.\Debug\MT3DMSSheet.obj
.\Debug\MT3DMSTopology.obj
.\Debug\ObjectList.obj
.\Debug\Parameter.obj
.\Debug\ParameterAveragePage.obj
.\Debug\ParameterGeneralGrid.obj
.\Debug\ParameterGeneralPage.obj
.\Debug\ParameterGUI.obj
.\Debug\ParameterSheet.obj
.\Debug\picture.obj
.\Debug\PolyData.obj
.\Debug\PotentiometricSurface.obj
.\Debug\PotentiometricSurfaceGeneralPage.obj
.\Debug\PotentiometricSurfaceGUI.obj
.\Debug\PotentiometricSurfaceSheet.obj
.\Debug\QuadIndexes.obj
.\Debug\ReadFile.obj
.\Debug\RelaxationFactorEditBox.obj
.\Debug\rowcursor.obj
.\Debug\ScaleDlg.obj
.\Debug\SidesQuadTopology.obj
.\Debug\Splash.obj
.\Debug\StdAfx.obj
.\Debug\StressPeriod.obj
.\Debug\TimeAndLayerParameter.obj
.\Debug\TimeStep.obj
.\Debug\TopQuadTopology.obj
.\Debug\Visualization.obj
.\Debug\VisualizationObject.obj
.\Debug\VisualizeDlg.obj
.\Debug\VisualizeGrid.obj
.\Debug\vtkDoc.obj
.\Debug\vtkView.obj
.\Debug\XYZCoordinate.obj
.\Debug\XYZSurface.obj
.\Debug\XYZSurfaceDecSmoothPage.obj
.\Debug\XYZSurfaceGeneralPage.obj
.\Debug\XYZSurfaceGeometryAndTopology.obj
.\Debug\XYZSurfaceGUI.obj
.\Debug\XYZSurfaceSheet.obj
.\Debug\PotentiometricSurfaceAveragePage.obj
.\Debug\GE.res
.\READFOR.lib
]
Creating command line "link.exe @C:\TEMP\RSP16.tmp"
<h3>Output Window</h3>
Compiling resources...
Compiling...
StdAfx.cpp
Compiling...
Actor.cpp
Average.cpp
AverageGUI.cpp
AxesDlg.cpp
CleanTriangulate.cpp
ClipDlg.cpp
ClipPolyData.cpp
Color.cpp
ColorEditBox.cpp
ColorGrid.cpp
ColorLevelDlg.cpp
ColorPage.cpp
ColorRow.cpp
ColorSpectrum.cpp
ColorSpectrumDlg.cpp
ColorTable.cpp
DecimateSmoothGUI.cpp
DecimateSmoothNormals.cpp
FilesExist.cpp
font.cpp
Generating Code...
Compiling...
GE.cpp
Geometry.cpp
GeospatialModel.cpp
GeospatialModelAverageGrid.cpp
GeospatialModelAverageGridRelaxationFactorEditBox.cpp
GeospatialModelAverageGridTargetReductionEditBox.cpp
GeospatialModelAveragePage.cpp
GeoSpatialModelForLayer.cpp
GeospatialModelForLayerGUI.cpp
GeospatialModelGeneralGrid.cpp
GeospatialModelGeneralGridOpacityEditBox.cpp
GeospatialModelGeneralPage.cpp
GeospatialModelSheet.cpp
GeospatialModelVisibleGrid.cpp
GeospatialModelVisiblePage.cpp
HexahedronTopology.cpp
HydraulicComponent.cpp
HydraulicComponentGUI.cpp
HydraulicComponents.cpp
HydraulicComponentsAveragePage.cpp
Generating Code...
Compiling...
HydraulicComponentsGeneralGrid.cpp
HydraulicComponentsGeneralPage.cpp
HydraulicComponentsGeneralPageTD.cpp
HydraulicComponentsSheet.cpp
HydraulicTDComponents.cpp
HydraulicTIComponents.cpp
Indexes.cpp
IterationsEditBox.cpp
LookUpTable.cpp
MainFrm.cpp
Mapper.cpp
MenuButton.cpp
Model.cpp
ModelOutline.cpp
ModelOutlineGeneralPage.cpp
ModelOutlineSheet.cpp
msflexgrid.cpp
MT3DMS.cpp
MT3DMSContourAndColorAddDlg.cpp
MT3DMSContourAndColorEditBox.cpp
Generating Code...
Compiling...
MT3DMSContourAndColorGrid.cpp
MT3DMSContourAndColorPage.cpp
MT3DMSContourAndColorRow.cpp
MT3DMSContourAndColorTable.cpp
MT3DMSGeneralPage.cpp
MT3DMSGUI.cpp
MT3DMSLookupTable.cpp
MT3DMSSheet.cpp
MT3DMSTopology.cpp
ObjectList.cpp
Parameter.cpp
ParameterAveragePage.cpp
ParameterGeneralGrid.cpp
ParameterGeneralPage.cpp
ParameterGUI.cpp
ParameterSheet.cpp
picture.cpp
PolyData.cpp
PotentiometricSurface.cpp
PotentiometricSurfaceGeneralPage.cpp
Generating Code...
Compiling...
PotentiometricSurfaceGUI.cpp
PotentiometricSurfaceSheet.cpp
QuadIndexes.cpp
ReadFile.cpp
RelaxationFactorEditBox.cpp
rowcursor.cpp
ScaleDlg.cpp
SidesQuadTopology.cpp
Splash.cpp
StressPeriod.cpp
TimeAndLayerParameter.cpp
TimeStep.cpp
TopQuadTopology.cpp
Visualization.cpp
VisualizationObject.cpp
VisualizeDlg.cpp
VisualizeGrid.cpp
vtkDoc.cpp
vtkView.cpp
XYZCoordinate.cpp
Generating Code...
Compiling...
XYZSurface.cpp
XYZSurfaceDecSmoothPage.cpp
XYZSurfaceGeneralPage.cpp
XYZSurfaceGeometryAndTopology.cpp
XYZSurfaceGUI.cpp
XYZSurfaceSheet.cpp
PotentiometricSurfaceAveragePage.cpp
Generating Code...
Linking...



<h3>Results</h3>
GE.exe - 0 error(s), 0 warning(s)
</pre>
</body>
</html>
